### 
### Created by X-TOOL on Mon Sep 10 21:13:24 2018
### 

@<TRIPOS>MOLECULE
4r6e_ligand
   45    48     1     0     0
SMALL
GAST_HUCK


@<TRIPOS>ATOM
      1 CAM       -65.3360   25.2750   29.6600 C.3       1 3JD        -0.0307
      2 CAK       -65.2250   25.6390   31.1890 C.3       1 3JD        -0.0103
      3 CAL       -65.7090   27.0590   31.5170 C.3       1 3JD        -0.0333
      4 NAP       -67.0980   27.2800   31.0940 N.4       1 3JD         0.2286
      5 CAN       -67.6690   26.3690   30.0110 C.3       1 3JD        -0.0212
      6 CAW       -66.6490   25.8190   28.9810 C.3       1 3JD         0.0329
      7 CAR       -67.3010   24.8670   28.0570 C.ar      1 3JD        -0.0348
      8 CAF       -67.2330   25.0560   26.6630 C.ar      1 3JD        -0.0560
      9 CAH       -67.7910   24.0950   25.8040 C.ar      1 3JD        -0.0191
     10 CAE       -68.0240   23.7270   28.5610 C.ar      1 3JD        -0.0560
     11 CAG       -68.6520   22.7900   27.6490 C.ar      1 3JD        -0.0191
     12 CAS       -68.6120   23.0520   26.2120 C.ar      1 3JD         0.1259
     13 NAX       -69.1870   22.1940   25.3040 N.pl3     1 3JD        -0.1977
     14 CAJ       -68.7200   21.9550   24.0620 C.2       1 3JD         0.1176
     15 NAO       -70.1180   21.3660   25.5600 N.2       1 3JD        -0.3278
     16 CAV       -70.4680   20.6460   24.5160 C.ar      1 3JD         0.0022
     17 CAU       -69.5380   21.0030   23.4990 C.ar      1 3JD         0.0349
     18 CAI       -69.5760   20.4190   22.2200 C.ar      1 3JD        -0.0436
     19 CAC       -70.6220   19.4690   21.9740 C.ar      1 3JD        -0.0552
     20 CAD       -71.5580   19.1010   23.0240 C.ar      1 3JD        -0.0420
     21 CAT       -71.4870   19.6970   24.3410 C.ar      1 3JD         0.0518
     22 CAQ       -72.4260   19.3450   25.3720 C.2       1 3JD         0.2024
     23 OAB       -73.2820   18.5010   25.1860 O.2       1 3JD        -0.3849
     24 NAA       -72.4250   19.9330   26.5750 N.am      1 3JD        -0.3001
     25 H1        -65.3201   24.1797   29.5603 H         1 3JD         0.0294
     26 H2        -64.4691   25.7036   29.1357 H         1 3JD         0.0294
     27 H3        -64.1712   25.5516   31.4922 H         1 3JD         0.0318
     28 H4        -65.8322   24.9231   31.7624 H         1 3JD         0.0318
     29 H5        -65.0614   27.7828   31.0005 H         1 3JD         0.0814
     30 H6        -65.6399   27.2153   32.6036 H         1 3JD         0.0814
     31 H7        -67.1610   28.2267   30.7536 H         1 3JD         0.2015
     32 H8        -67.6803   27.1770   31.9103 H         1 3JD         0.2015
     33 H9        -68.4313   26.9384   29.4591 H         1 3JD         0.0840
     34 H10       -68.1421   25.5096   30.5086 H         1 3JD         0.0840
     35 H11       -66.3344   26.6748   28.3657 H         1 3JD         0.0515
     36 H12       -66.7527   25.9382   26.2553 H         1 3JD         0.0559
     37 H13       -67.5645   24.1731   24.7468 H         1 3JD         0.0633
     38 H14       -68.0992   23.5683   29.6307 H         1 3JD         0.0559
     39 H15       -69.1464   21.9037   28.0299 H         1 3JD         0.0633
     40 H16       -67.8578   22.4267   23.5929 H         1 3JD         0.1315
     41 H17       -68.8497   20.6746   21.4570 H         1 3JD         0.0663
     42 H18       -70.7160   19.0194   20.9921 H         1 3JD         0.0629
     43 H19       -72.3256   18.3644   22.8159 H         1 3JD         0.0669
     44 H20       -73.0948   19.6600   27.2655 H         1 3JD         0.1808
     45 H21       -71.7544   20.6451   26.7829 H         1 3JD         0.1808
@<TRIPOS>BOND
     1    1    2 1  
     2    1    6 1  
     3    2    3 1  
     4    3    4 1  
     5    4    5 1  
     6    5    6 1  
     7    6    7 1  
     8    7    8 ar 
     9    7   10 ar 
    10    8    9 ar 
    11    9   12 ar 
    12   10   11 ar 
    13   11   12 ar 
    14   12   13 1  
    15   13   14 1  
    16   13   15 1  
    17   14   17 2  
    18   15   16 2  
    19   16   17 ar 
    20   16   21 ar 
    21   17   18 ar 
    22   18   19 ar 
    23   19   20 ar 
    24   20   21 ar 
    25   21   22 1  
    26   22   23 2  
    27   22   24 am 
    28    1   25 1  
    29    1   26 1  
    30    2   27 1  
    31    2   28 1  
    32    3   29 1  
    33    3   30 1  
    34    4   31 1  
    35    4   32 1  
    36    5   33 1  
    37    5   34 1  
    38    6   35 1  
    39    8   36 1  
    40    9   37 1  
    41   10   38 1  
    42   11   39 1  
    43   14   40 1  
    44   18   41 1  
    45   19   42 1  
    46   20   43 1  
    47   24   44 1  
    48   24   45 1  
@<TRIPOS>SUBSTRUCTURE
     1 3JD         1

