### 
### Created by X-TOOL on Wed Jan  1 15:39:37 2020
### 

@<TRIPOS>MOLECULE
6ew7_ligand
   36    38     1     0     0
SMALL
GAST_HUCK


@<TRIPOS>ATOM
      1 C1          9.9950    3.2270    1.7040 C.ar      1 C1W        -0.0376
      2 C2         10.7830    2.9300    2.7920 C.ar      1 C1W         0.1200
      3 C3         11.9030    2.1460    2.7070 C.ar      1 C1W        -0.0376
      4 C7         13.2530    0.7140   -2.7570 C.ar      1 C1W         0.0984
      5 C8         14.5240    0.7260   -3.3070 C.ar      1 C1W         0.0154
      6 C9         15.2810    1.9900   -1.5760 C.ar      1 C1W         0.1961
      7 C10        16.3570    3.3610    0.2440 C.ar      1 C1W         0.0689
      8 C11        16.9900    4.5950    0.3480 C.ar      1 C1W        -0.0342
      9 C12        17.0250    5.2590    1.5640 C.ar      1 C1W        -0.0567
     10 C13        16.4230    4.7160    2.7020 C.ar      1 C1W         0.0122
     11 C14        15.7990    3.4720    2.5760 C.ar      1 C1W         0.0455
     12 C15        15.7810    2.7890    1.3730 C.ar      1 C1W        -0.0205
     13 C16        16.5220    5.4850    3.9880 C.2       1 C1W         0.0557
     14 F          10.4140    3.3980    4.0200 F         1 C1W        -0.1930
     15 C4         12.2710    1.6570    1.4660 C.ar      1 C1W        -0.0396
     16 C5         11.4920    1.9170    0.3430 C.ar      1 C1W         0.0605
     17 C          10.3680    2.7260    0.4650 C.ar      1 C1W        -0.0396
     18 N          11.8560    1.3800   -0.9090 N.pl3     1 C1W        -0.2573
     19 C6         13.0670    1.3870   -1.5420 C.ar      1 C1W         0.1476
     20 N2         14.0920    2.0240   -0.9540 N.ar      1 C1W        -0.2337
     21 N1         15.5500    1.3870   -2.7460 N.ar      1 C1W        -0.2680
     22 CL1        11.9820   -0.1760   -3.5390 Cl        1 C1W        -0.0747
     23 N3         16.3190    2.6500   -0.9780 N.pl3     1 C1W        -0.2427
     24 CL         15.0590    2.6960    3.9370 Cl        1 C1W        -0.0699
     25 O1         15.4630    5.4360    4.7540 O.co2     1 C1W        -0.5638
     26 O          17.5400    6.1110    4.2910 O.co2     1 C1W        -0.5638
     27 H1          9.1054    3.8369    1.8120 H         1 C1W         0.0576
     28 H2         12.4868    1.9143    3.5905 H         1 C1W         0.0576
     29 H3         14.6978    0.1800   -4.2272 H         1 C1W         0.0855
     30 H4         17.4570    5.0384   -0.5240 H         1 C1W         0.0546
     31 H5         17.5283    6.2166    1.6335 H         1 C1W         0.0622
     32 H6         15.3190    1.8104    1.3107 H         1 C1W         0.0550
     33 H7         13.1744    1.0660    1.3679 H         1 C1W         0.0528
     34 H8          9.7796    2.9668   -0.4130 H         1 C1W         0.0528
     35 H9         11.0956    0.9127   -1.4231 H         1 C1W         0.2155
     36 H10        17.2086    2.6255   -1.4966 H         1 C1W         0.2188
@<TRIPOS>BOND
     1    1    2 ar 
     2   17    1 ar 
     3    3    2 ar 
     4    2   14 1  
     5   15    3 ar 
     6    4    5 ar 
     7   19    4 ar 
     8    4   22 1  
     9    5   21 ar 
    10    6   20 ar 
    11   21    6 ar 
    12    6   23 1  
    13    7    8 ar 
    14    7   12 ar 
    15   23    7 1  
    16    8    9 ar 
    17    9   10 ar 
    18   11   10 ar 
    19   10   13 1  
    20   12   11 ar 
    21   11   24 1  
    22   13   25 ar 
    23   13   26 ar 
    24   16   15 ar 
    25   16   17 ar 
    26   18   16 1  
    27   18   19 1  
    28   19   20 ar 
    29    1   27 1  
    30    3   28 1  
    31    5   29 1  
    32    8   30 1  
    33    9   31 1  
    34   12   32 1  
    35   15   33 1  
    36   17   34 1  
    37   18   35 1  
    38   23   36 1  
@<TRIPOS>SUBSTRUCTURE
     1 C1W         1

