### 
### Created by X-TOOL on Mon Sep 10 21:13:28 2018
### 

@<TRIPOS>MOLECULE
5ei6_ligand
   47    50     1     0     0
SMALL
GAST_HUCK


@<TRIPOS>ATOM
      1 C1          2.8740   18.5350  -14.0140 C.ar      1 5OQ        -0.0673
      2 C2          2.2470   19.2810  -13.0640 C.ar      1 5OQ        -0.0576
      3 C3          1.4410   18.6650  -12.0810 C.ar      1 5OQ        -0.0049
      4 C4          1.2890   17.2550  -12.0940 C.ar      1 5OQ        -0.0133
      5 C5          1.9560   16.5070  -13.1130 C.ar      1 5OQ        -0.0249
      6 C10         0.4730   16.6600  -11.1070 C.ar      1 5OQ        -0.0148
      7 C11        -0.1500   17.4910  -10.1690 C.ar      1 5OQ         0.1237
      8 C12         0.7510   19.3760  -11.0760 C.ar      1 5OQ         0.0114
      9 C13        -1.1690   15.6320   -8.8680 C.ar      1 5OQ         0.0800
     10 C14        -1.4440   14.6730   -9.8350 C.ar      1 5OQ        -0.0553
     11 C6          1.7770   15.0290  -13.2010 C.2       1 5OQ         0.0031
     12 C16        -1.5970   12.9920   -8.1360 C.ar      1 5OQ         0.0703
     13 C15        -1.6560   13.3570   -9.4710 C.ar      1 5OQ        -0.0539
     14 C20        -1.9450   10.6620   -8.6030 C.3       1 5OQ         0.0567
     15 O1         -1.8140   11.7250   -7.6630 O.3       1 5OQ        -0.3314
     16 C17        -1.3190   13.9350   -7.1610 C.ar      1 5OQ        -0.0137
     17 C18        -1.1050   15.2500   -7.5280 C.ar      1 5OQ         0.1064
     18 O          -0.8080   16.2620   -6.6590 O.3       1 5OQ        -0.3279
     19 C19        -1.1040   16.0640   -5.2800 C.3       1 5OQ         0.0567
     20 N3         -0.9590   16.9690   -9.1820 N.pl3     1 5OQ        -0.2726
     21 N2         -0.0120   18.8260  -10.1590 N.ar      1 5OQ        -0.2762
     22 C           2.7340   17.1580  -14.0430 C.ar      1 5OQ        -0.0621
     23 C8          2.4400   13.9980  -12.5190 C.2       1 5OQ         0.0070
     24 N1          1.9610   12.8100  -12.8370 N.2       1 5OQ        -0.2128
     25 N           0.9910   13.0700  -13.7260 N.pl3     1 5OQ        -0.2051
     26 C9          0.2240   11.9710  -14.2970 C.3       1 5OQ         0.0616
     27 C7          0.8510   14.3770  -13.9730 C.2       1 5OQ         0.0648
     28 H1          3.4913   19.0256  -14.7579 H         1 5OQ         0.0588
     29 H2          2.3673   20.3583  -13.0616 H         1 5OQ         0.0586
     30 H3          0.3326   15.5856  -11.0766 H         1 5OQ         0.0568
     31 H4          0.8585   20.4545  -11.0596 H         1 5OQ         0.0843
     32 H5         -1.4925   14.9584  -10.8796 H         1 5OQ         0.0474
     33 H6         -1.8681   12.6115  -10.2288 H         1 5OQ         0.0421
     34 H7         -2.1139    9.7168   -8.0664 H         1 5OQ         0.0573
     35 H8         -1.0245   10.5851   -9.2002 H         1 5OQ         0.0573
     36 H9         -2.7978   10.8635   -9.2680 H         1 5OQ         0.0573
     37 H10        -1.2696   13.6440   -6.1179 H         1 5OQ         0.0434
     38 H11        -0.8112   16.9581   -4.7101 H         1 5OQ         0.0573
     39 H12        -0.5463   15.1924   -4.9067 H         1 5OQ         0.0573
     40 H13        -2.1830   15.8886   -5.1581 H         1 5OQ         0.0573
     41 H14        -1.4701   17.6540   -8.6072 H         1 5OQ         0.2051
     42 H15         3.2441   16.5848  -14.8087 H         1 5OQ         0.0574
     43 H16         3.2525   14.1586  -11.8119 H         1 5OQ         0.0677
     44 H17        -0.5214   12.3707  -15.0003 H         1 5OQ         0.0608
     45 H18        -0.2881   11.4240  -13.4917 H         1 5OQ         0.0608
     46 H19         0.9023   11.2886  -14.8302 H         1 5OQ         0.0608
     47 H20         0.1379   14.8354  -14.6566 H         1 5OQ         0.1044
@<TRIPOS>BOND
     1    2    1 ar 
     2   22    1 ar 
     3    3    2 ar 
     4    4    3 ar 
     5    8    3 ar 
     6    4    5 ar 
     7    6    4 ar 
     8    5   11 1  
     9    5   22 ar 
    10    7    6 ar 
    11   20    7 1  
    12    7   21 ar 
    13   21    8 ar 
    14    9   10 ar 
    15    9   17 ar 
    16    9   20 1  
    17   10   13 ar 
    18   11   23 1  
    19   11   27 2  
    20   13   12 ar 
    21   12   15 1  
    22   12   16 ar 
    23   15   14 1  
    24   16   17 ar 
    25   17   18 1  
    26   18   19 1  
    27   23   24 2  
    28   24   25 1  
    29   25   26 1  
    30   25   27 1  
    31    1   28 1  
    32    2   29 1  
    33    6   30 1  
    34    8   31 1  
    35   10   32 1  
    36   13   33 1  
    37   14   34 1  
    38   14   35 1  
    39   14   36 1  
    40   16   37 1  
    41   19   38 1  
    42   19   39 1  
    43   19   40 1  
    44   20   41 1  
    45   22   42 1  
    46   23   43 1  
    47   26   44 1  
    48   26   45 1  
    49   26   46 1  
    50   27   47 1  
@<TRIPOS>SUBSTRUCTURE
     1 5OQ         1

